*HEADING
cubit(_nested_multigrid_01.debug/mpirun=1/knuckle/knuckle_1.inp): 06/13/2023: 17
version: 16.5.4
**
********************************** P A R T S **********************************
*PART, NAME=Part-Default
**
********************************** N O D E S **********************************
*NODE, NSET=ALLNODES
  717164,   -2.500000e+01,    9.000000e+00,   -1.785000e+01
  717165,   -2.500000e+01,    9.967966e+00,   -1.774094e+01
  717166,   -2.500000e+01,    1.088739e+01,   -1.741921e+01
  717167,   -2.500000e+01,    1.171218e+01,   -1.690097e+01
  717168,   -2.500000e+01,    1.240097e+01,   -1.621218e+01
  717169,   -2.500000e+01,    1.291921e+01,   -1.538739e+01
  717170,   -2.500000e+01,    1.324094e+01,   -1.446797e+01
  717171,   -2.500000e+01,    1.335000e+01,   -1.350000e+01
  717172,   -2.500000e+01,    1.324094e+01,   -1.253203e+01
  717173,   -2.500000e+01,    1.291921e+01,   -1.161261e+01
  717174,   -2.500000e+01,    1.240097e+01,   -1.078782e+01
  717175,   -2.500000e+01,    1.171218e+01,   -1.009903e+01
  717176,   -2.500000e+01,    1.088739e+01,   -9.580785e+00
  717177,   -2.500000e+01,    9.967966e+00,   -9.259064e+00
  717178,   -2.500000e+01,    9.000000e+00,   -9.150000e+00
  717179,   -2.500000e+01,    8.032034e+00,   -9.259064e+00
  717180,   -2.500000e+01,    7.112606e+00,   -9.580785e+00
  717181,   -2.500000e+01,    6.287819e+00,   -1.009903e+01
  717182,   -2.500000e+01,    5.599033e+00,   -1.078782e+01
  717183,   -2.500000e+01,    5.080785e+00,   -1.161261e+01
** ... 15888 like lines cut
**
********************************** E L E M E N T S ****************************
*ELEMENT, TYPE=C3D8R, ELSET=EB5
       1,  717881,  721213,  721133,  721132,  722145,  722218,  721510,  721504
       2,  717881,  721132,  721131,  717880,  722145,  721504,  721498,  722146
       3,  721250,  721192,  721191,  721253,  722244,  722194,  722193,  722188
       4,  721253,  721191,  721190,  721186,  722188,  722193,  722191,  722187
       5,  721247,  721246,  721199,  721185,  722250,  722251,  722248,  722246
       6,  721185,  717912,  721248,  721247,  722246,  722165,  722252,  722250
       7,  717913,  721184,  721248,  717912,  722164,  722186,  722252,  722165
       8,  721252,  721249,  721199,  721246,  722249,  722247,  722248,  722251
       9,  721252,  721246,  721102,  721101,  722249,  722251,  721303,  721297
      10,  721169,  721168,  721188,  721251,  721715,  721721,  722190,  722253
      11,  721251,  721188,  721187,  721189,  722253,  722190,  722189,  722192
      12,  721251,  721189,  721170,  721169,  722253,  722192,  721709,  721715
      13,  721253,  721245,  721249,  721250,  722188,  722245,  722247,  722244
      14,  721250,  721249,  721252,  721198,  722244,  722247,  722249,  722200
      15,  721184,  721105,  721104,  721248,  722186,  721321,  721315,  722252
      16,  721104,  721103,  721247,  721248,  721315,  721309,  722250,  722252
      17,  721131,  721130,  717879,  717880,  721498,  721492,  722147,  722146
      18,  721246,  721247,  721103,  721102,  722251,  722250,  721309,  721303
      19,  721100,  721198,  721252,  721101,  721291,  722200,  722249,  721297
      20,  721243,  721202,  721201,  721240,  722242,  722206,  722205,  722239
** ... 2157 like lines cut
*ELEMENT, TYPE=C3D8R, ELSET=EB6
    2178,  732456,  732459,  732435,  732449,  732095,  732099,  732075,  732087
    2179,  732459,  732448,  732434,  732435,  732099,  732098,  732074,  732075
    2180,  732458,  732447,  732448,  732459,  732097,  732086,  732098,  732099
    2181,  732457,  732458,  732459,  732456,  732096,  732097,  732099,  732095
    2182,  732454,  732455,  732457,  732456,  732093,  732094,  732096,  732095
    2183,  732453,  732446,  732447,  732458,  732091,  732092,  732086,  732097
    2184,  732452,  732453,  732458,  732457,  732090,  732091,  732097,  732096
    2185,  732451,  732452,  732457,  732455,  732089,  732090,  732096,  732094
    2186,  732449,  732450,  732454,  732456,  732087,  732088,  732093,  732095
    2187,  732444,  732445,  732451,  732455,  732084,  732085,  732089,  732094
    2188,  732443,  732444,  732455,  732454,  732083,  732084,  732094,  732093
    2189,  732442,  732443,  732454,  732450,  732082,  732083,  732093,  732088
    2190,  732439,  732440,  732446,  732453,  732079,  732080,  732092,  732091
    2191,  732438,  732439,  732453,  732452,  732078,  732079,  732091,  732090
    2192,  732437,  732438,  732452,  732451,  732077,  732078,  732090,  732089
    2193,  732436,  732437,  732451,  732445,  732076,  732077,  732089,  732085
    2194,  732426,  732427,  732442,  732450,  732066,  732067,  732082,  732088
    2195,  732425,  732426,  732450,  732449,  732065,  732066,  732088,  732087
    2196,  732424,  732425,  732449,  732435,  732064,  732065,  732087,  732075
    2197,  732432,  732433,  732434,  732448,  732072,  732073,  732074,  732098
** ... 898 like lines cut
*ELEMENT, TYPE=C3D8R, ELSET=EB1
    3096,  718948,  718900,  718971,  718902,  717330,  717334,  717370,  717297
    3097,  718971,  717962,  717945,  718902,  717370,  717220,  717219,  717297
    3098,  718900,  717979,  717962,  718971,  717334,  717221,  717220,  717370
    3099,  718899,  718900,  718948,  718869,  717348,  717334,  717330,  717268
    3100,  718898,  718899,  718869,  718870,  717296,  717348,  717268,  717269
    3101,  718955,  718942,  718863,  718864,  717368,  717369,  717262,  717263
    3102,  718906,  718907,  718942,  718955,  717302,  717335,  717369,  717368
    3103,  718848,  718970,  718951,  718874,  717246,  717333,  717331,  717273
    3104,  718848,  718953,  718969,  718970,  717246,  717367,  717332,  717333
    3105,  718891,  718892,  718949,  718951,  717289,  717290,  717363,  717331
    3106,  718951,  718970,  718890,  718891,  717331,  717333,  717288,  717289
    3107,  718889,  718890,  718970,  718969,  717287,  717288,  717333,  717332
    3108,  718968,  718967,  718969,  718953,  717361,  717362,  717332,  717367
    3109,  718888,  718889,  718969,  718967,  717286,  717287,  717332,  717362
    3110,  718968,  718953,  718952,  718885,  717361,  717367,  717366,  717365
    3111,  718887,  718968,  718885,  718886,  717285,  717361,  717365,  717284
    3112,  718896,  718962,  718894,  718895,  717294,  717343,  717292,  717293
    3113,  718893,  718894,  718962,  718950,  717291,  717292,  717343,  717364
    3114,  718892,  718893,  718950,  718949,  717290,  717291,  717364,  717363
    3115,  718887,  718888,  718967,  718968,  717285,  717286,  717362,  717361
** ... 2968 like lines cut
*ELEMENT, TYPE=C3D8R, ELSET=EB2
    6084,  724326,  724329,  724305,  724319,  723857,  723861,  723837,  723849
    6085,  724329,  724318,  724304,  724305,  723861,  723860,  723836,  723837
    6086,  724328,  724317,  724318,  724329,  723859,  723848,  723860,  723861
    6087,  724327,  724328,  724329,  724326,  723858,  723859,  723861,  723857
    6088,  724324,  724325,  724327,  724326,  723855,  723856,  723858,  723857
    6089,  724323,  724316,  724317,  724328,  723853,  723854,  723848,  723859
    6090,  724322,  724323,  724328,  724327,  723852,  723853,  723859,  723858
    6091,  724321,  724322,  724327,  724325,  723851,  723852,  723858,  723856
    6092,  724319,  724320,  724324,  724326,  723849,  723850,  723855,  723857
    6093,  724308,  724309,  724321,  724325,  723840,  723841,  723851,  723856
    6094,  724307,  724308,  724325,  724324,  723839,  723840,  723856,  723855
    6095,  724306,  724307,  724324,  724320,  723838,  723839,  723855,  723850
    6096,  724313,  724314,  724316,  724323,  723845,  723846,  723854,  723853
    6097,  724312,  724313,  724323,  724322,  723844,  723845,  723853,  723852
    6098,  724311,  724312,  724322,  724321,  723843,  723844,  723852,  723851
    6099,  724310,  724311,  724321,  724309,  723842,  723843,  723851,  723841
    6100,  724296,  724297,  724306,  724320,  723828,  723829,  723838,  723850
    6101,  724295,  724296,  724320,  724319,  723827,  723828,  723850,  723849
    6102,  724294,  724295,  724319,  724305,  723826,  723827,  723849,  723837
    6103,  724302,  724303,  724304,  724318,  723834,  723835,  723836,  723860
** ... 898 like lines cut
*ELEMENT, TYPE=C3D8R, ELSET=EB3
    7002,  726472,  726368,  726241,  726242,  725320,  725321,  725091,  725092
    7003,  726471,  726472,  726242,  726371,  725319,  725320,  725092,  725214
    7004,  726687,  726689,  726674,  726676,  725539,  725538,  725535,  725524
    7005,  726686,  726688,  726689,  726687,  725537,  725536,  725538,  725539
    7006,  726687,  726676,  726677,  726678,  725539,  725524,  725525,  725526
    7007,  726661,  726662,  726675,  726673,  725523,  725511,  725532,  725522
    7008,  726634,  726635,  726660,  726633,  725484,  725485,  725510,  725483
    7009,  726470,  726471,  726371,  726475,  725318,  725319,  725214,  725351
    7010,  726253,  726435,  726473,  726252,  725103,  725245,  725246,  725102
    7011,  726253,  726337,  726338,  726435,  725103,  725225,  725224,  725245
    7012,  726252,  726473,  726389,  726251,  725102,  725246,  725223,  725101
    7013,  726683,  726675,  726674,  726689,  725531,  725532,  725535,  725538
    7014,  726682,  726683,  726689,  726688,  725530,  725531,  725538,  725536
    7015,  726685,  726681,  726682,  726688,  725534,  725529,  725530,  725536
    7016,  726684,  726685,  726688,  726686,  725533,  725534,  725536,  725537
    7017,  726679,  726680,  726684,  726686,  725527,  725528,  725533,  725537
    7018,  726678,  726679,  726686,  726687,  725526,  725527,  725537,  725539
    7019,  726667,  726668,  726681,  726685,  725516,  725517,  725529,  725534
    7020,  726666,  726667,  726685,  726684,  725515,  725516,  725534,  725533
    7021,  726665,  726666,  726684,  726680,  725514,  725515,  725533,  725528
** ... 2625 like lines cut
*ELEMENT, TYPE=C3D8R, ELSET=EB4
    9647,  729953,  729860,  729738,  729739,  728889,  728890,  728676,  728677
    9648,  729952,  729953,  729739,  729863,  728888,  728889,  728677,  728799
    9649,  729951,  729952,  729863,  729956,  728887,  728888,  728799,  728920
    9650,  729718,  729916,  729954,  729717,  728656,  728816,  728817,  728655
    9651,  729718,  729818,  729819,  729916,  728656,  728780,  728779,  728816
    9652,  729717,  729954,  729875,  729716,  728655,  728817,  728778,  728654
    9653,  730173,  730174,  730176,  730177,  729111,  729112,  729114,  729115
    9654,  730177,  730175,  730172,  730173,  729115,  729113,  729110,  729111
    9655,  730168,  730169,  730175,  730177,  729106,  729107,  729113,  729115
    9656,  730167,  730168,  730177,  730176,  729105,  729106,  729115,  729114
    9657,  730171,  730166,  730167,  730176,  729109,  729104,  729105,  729114
    9658,  730170,  730171,  730176,  730174,  729108,  729109,  729114,  729112
    9659,  730159,  730160,  730172,  730175,  729097,  729098,  729110,  729113
    9660,  730158,  730159,  730175,  730169,  729096,  729097,  729113,  729107
    9661,  730164,  730165,  730170,  730174,  729102,  729103,  729108,  729112
    9662,  730163,  730164,  730174,  730173,  729101,  729102,  729112,  729111
    9663,  730162,  730163,  730173,  730172,  729100,  729101,  729111,  729110
    9664,  730161,  730162,  730172,  730160,  729099,  729100,  729110,  729098
    9665,  730150,  730151,  730166,  730171,  729088,  729089,  729104,  729109
    9666,  730149,  730150,  730171,  730170,  729087,  729088,  729109,  729108
** ... 2660 like lines cut
**
********************************** P R O P E R T I E S ************************
*SOLID SECTION, ELSET=EB5, MATERIAL=Default-Steel
*SOLID SECTION, ELSET=EB6, MATERIAL=Default-Steel
*SOLID SECTION, ELSET=EB1, MATERIAL=Default-Steel
*SOLID SECTION, ELSET=EB2, MATERIAL=Default-Steel
*SOLID SECTION, ELSET=EB3, MATERIAL=Default-Steel
*SOLID SECTION, ELSET=EB4, MATERIAL=Default-Steel
**
*END PART
**
**
**
********************************** E N D   P A R T S **********************************
**
**
********************************** A S S E M B L Y ************************************
**
*ASSEMBLY, NAME=ASSEMBLY1
**
*INSTANCE, NAME=Part-Default_1, PART=Part-Default
*END INSTANCE
**
*END ASSEMBLY
**
**
**
*MATERIAL, NAME = Default-Steel
*ELASTIC, TYPE=ISOTROPIC
2.068000e+05, 2.900000e-01
*DENSITY
7.000000e-06
*CONDUCTIVITY,TYPE=ISO
4.500000e-02
*SPECIFIC HEAT
5.000000e+02
**
**
************************************** H I S T O R Y *************************************
**
*PREPRINT
**
**************************************** S T E P 1 ***************************************
*STEP,INC=100,NAME=Default Set
**
*STATIC
1, 1, 1e-05, 1
**
**
**
**
*END STEP
