*HEADING
cubit(nested_multigrid_01.debug/mpirun=1/knuckle/knuckle_08.inp): 06/13/2023: 17
version: 16.5.4
**
********************************** P A R T S **********************************
*PART, NAME=Part-Default
**
********************************** N O D E S **********************************
*NODE, NSET=ALLNODES
  686467,   -2.500000e+01,    9.000000e+00,   -1.785000e+01
  686468,   -2.500000e+01,    9.799310e+00,   -1.777593e+01
  686469,   -2.500000e+01,    1.057140e+01,   -1.755625e+01
  686470,   -2.500000e+01,    1.128998e+01,   -1.719844e+01
  686471,   -2.500000e+01,    1.193058e+01,   -1.671469e+01
  686472,   -2.500000e+01,    1.247137e+01,   -1.612146e+01
  686473,   -2.500000e+01,    1.289396e+01,   -1.543896e+01
  686474,   -2.500000e+01,    1.318394e+01,   -1.469043e+01
  686475,   -2.500000e+01,    1.333144e+01,   -1.390137e+01
  686476,   -2.500000e+01,    1.333144e+01,   -1.309863e+01
  686477,   -2.500000e+01,    1.318394e+01,   -1.230957e+01
  686478,   -2.500000e+01,    1.289396e+01,   -1.156104e+01
  686479,   -2.500000e+01,    1.247137e+01,   -1.087854e+01
  686480,   -2.500000e+01,    1.193058e+01,   -1.028531e+01
  686481,   -2.500000e+01,    1.128998e+01,   -9.801555e+00
  686482,   -2.500000e+01,    1.057140e+01,   -9.443746e+00
  686483,   -2.500000e+01,    9.799310e+00,   -9.224067e+00
  686484,   -2.500000e+01,    9.000000e+00,   -9.150000e+00
  686485,   -2.500000e+01,    8.200690e+00,   -9.224067e+00
  686486,   -2.500000e+01,    7.428599e+00,   -9.443746e+00
** ... 30677 like lines cut
**
********************************** E L E M E N T S ****************************
*ELEMENT, TYPE=C3D8R, ELSET=EB5
       1,  693928,  694023,  694037,  694036,  695546,  695545,  695550,  695559
       2,  693942,  693936,  694037,  694023,  695544,  695551,  695550,  695545
       3,  694036,  694022,  693943,  693939,  695559,  695558,  695555,  695554
       4,  694036,  693939,  693929,  693928,  695559,  695554,  695547,  695546
       5,  687585,  687586,  693958,  694035,  695432,  695431,  695574,  695649
       6,  693958,  693870,  693869,  694035,  695574,  694839,  694847,  695649
       7,  693869,  693868,  687585,  694035,  694847,  694855,  695432,  695649
       8,  693876,  693875,  694034,  693951,  694791,  694799,  695648,  695567
       9,  694034,  687591,  687592,  693951,  695648,  695494,  695493,  695567
      10,  694033,  687590,  687591,  694034,  695647,  695495,  695494,  695648
      11,  693875,  693874,  694033,  694034,  694799,  694807,  695647,  695648
      12,  694032,  687589,  687590,  694033,  695646,  695496,  695495,  695647
      13,  693874,  693873,  694032,  694033,  694807,  694815,  695646,  695647
      14,  693952,  687588,  687589,  694032,  695569,  695430,  695496,  695646
      15,  693873,  693872,  693952,  694032,  694815,  694823,  695569,  695646
      16,  694022,  693940,  693941,  693943,  695558,  695557,  695556,  695555
      17,  693963,  694018,  694030,  694031,  695582,  695581,  695638,  695630
      18,  694031,  694030,  694020,  694017,  695630,  695638,  695639,  695631
      19,  694029,  694014,  694019,  694015,  695635,  695634,  695640,  695645
      20,  694015,  694019,  694016,  694028,  695645,  695640,  695636,  695637
** ... 4390 like lines cut
*ELEMENT, TYPE=C3D8R, ELSET=EB6
    4411,  715601,  715570,  715599,  715594,  715001,  714969,  714999,  714994
    4412,  715601,  715577,  715569,  715570,  715001,  714978,  714968,  714969
    4413,  715601,  715600,  715576,  715577,  715001,  715000,  714977,  714978
    4414,  715601,  715594,  715595,  715600,  715001,  714994,  714995,  715000
    4415,  715585,  715594,  715599,  715593,  714993,  714994,  714999,  714992
    4416,  715593,  715581,  715583,  715585,  714992,  714982,  714983,  714993
    4417,  715543,  715582,  715565,  715542,  714943,  714974,  714964,  714942
    4418,  715543,  715558,  715584,  715582,  714943,  714958,  714984,  714974
    4419,  715600,  715595,  715596,  715597,  715000,  714995,  714996,  714997
    4420,  715592,  715593,  715599,  715598,  714991,  714992,  714999,  714998
    4421,  715590,  715591,  715592,  715598,  714989,  714990,  714991,  714998
    4422,  715575,  715576,  715600,  715597,  714976,  714977,  715000,  714997
    4423,  715571,  715572,  715590,  715598,  714970,  714971,  714989,  714998
    4424,  715570,  715571,  715598,  715599,  714969,  714970,  714998,  714999
    4425,  715589,  715574,  715575,  715597,  714988,  714975,  714976,  714997
    4426,  715588,  715589,  715597,  715596,  714987,  714988,  714997,  714996
    4427,  715587,  715588,  715596,  715595,  714986,  714987,  714996,  714995
    4428,  715586,  715587,  715595,  715594,  714985,  714986,  714995,  714994
    4429,  715584,  715586,  715594,  715585,  714984,  714985,  714994,  714993
    4430,  715580,  715581,  715593,  715592,  714981,  714982,  714992,  714991
** ... 2050 like lines cut
*ELEMENT, TYPE=C3D8R, ELSET=EB1
    6481,  689318,  689255,  689254,  689256,  686750,  686770,  686700,  686701
    6482,  689318,  689292,  689207,  689320,  686750,  686733,  686658,  686771
    6483,  689313,  689320,  689207,  689208,  686763,  686771,  686658,  686659
    6484,  689253,  689319,  689320,  689313,  686699,  686769,  686771,  686763
    6485,  689319,  689255,  689318,  689320,  686769,  686770,  686750,  686771
    6486,  689159,  689160,  689255,  689319,  686610,  686611,  686770,  686769
    6487,  689158,  689159,  689319,  689253,  686609,  686610,  686769,  686699
    6488,  689309,  689315,  689200,  689201,  686751,  686756,  686651,  686652
    6489,  689309,  689265,  689266,  689315,  686751,  686710,  686711,  686756
    6490,  689224,  689317,  689282,  689223,  686675,  686758,  686724,  686674
    6491,  689280,  689227,  689228,  689229,  686723,  686678,  686679,  686680
    6492,  689279,  689280,  689229,  689230,  686722,  686723,  686680,  686681
    6493,  689277,  689279,  689230,  689231,  686721,  686722,  686681,  686682
    6494,  689278,  689277,  689231,  689232,  686720,  686721,  686682,  686683
    6495,  689302,  689278,  689232,  689233,  686745,  686720,  686683,  686768
    6496,  689303,  689302,  689233,  689234,  686744,  686745,  686768,  686767
    6497,  689304,  689303,  689234,  689235,  686746,  686744,  686767,  686766
    6498,  689236,  689306,  689304,  689235,  686684,  686747,  686746,  686766
    6499,  689237,  689305,  689306,  689236,  686685,  686743,  686747,  686684
    6500,  689310,  689305,  689237,  689238,  686752,  686743,  686685,  686686
** ... 5822 like lines cut
*ELEMENT, TYPE=C3D8R, ELSET=EB2
   12323,  699861,  699891,  699893,  699860,  699104,  699131,  699133,  699103
   12324,  699883,  699884,  699890,  699882,  699126,  699127,  699132,  699125
   12325,  699889,  699861,  699862,  699887,  699138,  699104,  699105,  699135
   12326,  699890,  699891,  699861,  699889,  699132,  699131,  699104,  699138
   12327,  699879,  699888,  699895,  699878,  699122,  699130,  699137,  699121
   12328,  699895,  699864,  699865,  699878,  699137,  699107,  699108,  699121
   12329,  699888,  699863,  699864,  699895,  699130,  699106,  699107,  699137
   12330,  699876,  699877,  699893,  699892,  699119,  699120,  699133,  699136
   12331,  699875,  699876,  699892,  699894,  699118,  699119,  699136,  699134
   12332,  699862,  699863,  699888,  699887,  699105,  699106,  699130,  699135
   12333,  699859,  699860,  699893,  699877,  699102,  699103,  699133,  699120
   12334,  699868,  699869,  699875,  699894,  699111,  699112,  699118,  699134
   12335,  699885,  699867,  699868,  699894,  699128,  699110,  699111,  699134
   12336,  699886,  699885,  699894,  699892,  699129,  699128,  699134,  699136
   12337,  699886,  699892,  699893,  699891,  699129,  699136,  699133,  699131
   12338,  699884,  699886,  699891,  699890,  699127,  699129,  699131,  699132
   12339,  699881,  699882,  699890,  699889,  699124,  699125,  699132,  699138
   12340,  699880,  699881,  699889,  699887,  699123,  699124,  699138,  699135
   12341,  699879,  699880,  699887,  699888,  699122,  699123,  699135,  699130
   12342,  699884,  699852,  699885,  699886,  699127,  699095,  699128,  699129
** ... 1958 like lines cut
*ELEMENT, TYPE=C3D8R, ELSET=EB3
   14301,  703728,  703791,  703792,  703594,  702348,  701932,  701933,  701744
   14302,  703792,  703726,  703593,  703594,  701933,  701934,  701743,  701744
   14303,  703790,  703791,  703728,  703896,  701931,  701932,  702348,  702038
   14304,  703728,  703727,  703861,  703896,  702348,  701870,  702106,  702038
   14305,  704183,  704197,  704190,  704182,  702327,  702347,  702334,  702326
   14306,  704197,  704188,  704189,  704190,  702347,  702332,  702333,  702334
   14307,  704192,  704187,  704188,  704197,  702336,  702331,  702332,  702347
   14308,  704184,  704192,  704197,  704183,  702328,  702336,  702347,  702327
   14309,  704196,  704154,  704155,  704178,  702321,  702299,  702300,  702346
   14310,  704176,  704153,  704154,  704196,  702345,  702298,  702299,  702321
   14311,  704190,  704176,  704196,  704178,  702334,  702345,  702321,  702346
   14312,  703978,  703979,  703981,  704029,  702118,  702119,  702120,  702219
   14313,  703977,  703978,  704029,  704026,  702117,  702118,  702219,  702170
   14314,  704025,  703962,  703963,  703964,  702220,  702103,  702341,  702104
   14315,  704022,  703922,  703923,  703993,  702343,  702344,  702133,  702134
   14316,  704024,  703921,  703922,  704022,  702165,  702163,  702344,  702343
   14317,  703974,  703975,  704195,  703926,  702114,  702115,  702342,  702066
   14318,  704195,  703817,  703816,  703926,  702342,  701959,  701960,  702066
   14319,  703975,  703924,  703817,  704195,  702115,  702065,  701959,  702342
   14320,  704026,  704029,  704028,  703961,  702170,  702219,  702218,  702102
** ... 5332 like lines cut
*ELEMENT, TYPE=C3D8R, ELSET=EB4
   19653,  710413,  710476,  710477,  710299,  709177,  708761,  708762,  708593
   19654,  710477,  710411,  710298,  710299,  708762,  708763,  708592,  708593
   19655,  710475,  710476,  710413,  710581,  708760,  708761,  709177,  708867
   19656,  710413,  710412,  710546,  710581,  709177,  708699,  708935,  708867
   19657,  710868,  710882,  710875,  710867,  709156,  709176,  709163,  709155
   19658,  710882,  710873,  710874,  710875,  709176,  709161,  709162,  709163
   19659,  710877,  710872,  710873,  710882,  709165,  709160,  709161,  709176
   19660,  710869,  710877,  710882,  710868,  709157,  709165,  709176,  709156
   19661,  710881,  710839,  710840,  710863,  709150,  709128,  709129,  709175
   19662,  710861,  710838,  710839,  710881,  709174,  709127,  709128,  709150
   19663,  710875,  710861,  710881,  710863,  709163,  709174,  709150,  709175
   19664,  710663,  710664,  710666,  710714,  708947,  708948,  708949,  709048
   19665,  710662,  710663,  710714,  710711,  708946,  708947,  709048,  708999
   19666,  710710,  710647,  710648,  710649,  709049,  708932,  709170,  708933
   19667,  710707,  710607,  710608,  710678,  709172,  709173,  708962,  708963
   19668,  710709,  710606,  710607,  710707,  708994,  708992,  709173,  709172
   19669,  710659,  710660,  710880,  710611,  708943,  708944,  709171,  708895
   19670,  710880,  710502,  710501,  710611,  709171,  708788,  708789,  708895
   19671,  710660,  710609,  710502,  710880,  708944,  708894,  708788,  709171
   19672,  710711,  710714,  710713,  710646,  708999,  709048,  709047,  708931
** ... 5332 like lines cut
**
********************************** P R O P E R T I E S ************************
*SOLID SECTION, ELSET=EB5, MATERIAL=Default-Steel
*SOLID SECTION, ELSET=EB6, MATERIAL=Default-Steel
*SOLID SECTION, ELSET=EB1, MATERIAL=Default-Steel
*SOLID SECTION, ELSET=EB2, MATERIAL=Default-Steel
*SOLID SECTION, ELSET=EB3, MATERIAL=Default-Steel
*SOLID SECTION, ELSET=EB4, MATERIAL=Default-Steel
**
*END PART
**
**
**
********************************** E N D   P A R T S **********************************
**
**
********************************** A S S E M B L Y ************************************
**
*ASSEMBLY, NAME=ASSEMBLY1
**
*INSTANCE, NAME=Part-Default_1, PART=Part-Default
*END INSTANCE
**
*END ASSEMBLY
**
**
**
*MATERIAL, NAME = Default-Steel
*ELASTIC, TYPE=ISOTROPIC
2.068000e+05, 2.900000e-01
*DENSITY
7.000000e-06
*CONDUCTIVITY,TYPE=ISO
4.500000e-02
*SPECIFIC HEAT
5.000000e+02
**
**
************************************** H I S T O R Y *************************************
**
*PREPRINT
**
**************************************** S T E P 1 ***************************************
*STEP,INC=100,NAME=Default Set
**
*STATIC
1, 1, 1e-05, 1
**
**
**
**
*END STEP
