*HEADING
cubit(my_fork/dealii/non_nested_mg/meshes/Fichera/Fichera_1.inp): 08/01/2023: 15
version: 16.5.4
**
********************************** P A R T S **********************************
*PART, NAME=Part-Default
**
********************************** N O D E S **********************************
*NODE, NSET=ALLNODES
       1,    2.500000e+00,    2.500000e+00,    5.000000e-01
       2,    2.500000e+00,    5.000000e-01,    5.000000e-01
       3,    2.500000e+00,    2.000000e+00,    5.000000e-01
       4,    2.500000e+00,    1.500000e+00,    5.000000e-01
       5,    2.500000e+00,    1.000000e+00,    5.000000e-01
       6,    5.000000e-01,    2.500000e+00,    5.000000e-01
       7,    1.000000e+00,    2.500000e+00,    5.000000e-01
       8,    1.500000e+00,    2.500000e+00,    5.000000e-01
       9,    2.000000e+00,    2.500000e+00,    5.000000e-01
      13,    5.000000e-01,    2.000000e+00,    5.000000e-01
      14,    2.000000e+00,    5.000000e-01,    5.000000e-01
      17,    2.000000e+00,    1.000000e+00,    5.000000e-01
      18,    2.000000e+00,    1.500000e+00,    5.000000e-01
      19,    2.000000e+00,    2.000000e+00,    5.000000e-01
      22,    1.500000e+00,    2.000000e+00,    5.000000e-01
      25,    1.000000e+00,    2.000000e+00,    5.000000e-01
      26,    5.000000e-01,    5.000000e-01,    2.500000e+00
      27,    5.000000e-01,    5.000000e-01,    2.000000e+00
      30,    2.500000e+00,    5.000000e-01,    2.500000e+00
      31,    2.000000e+00,    5.000000e-01,    2.500000e+00
** ... 3963 like lines cut
**
********************************** E L E M E N T S ****************************
*ELEMENT, TYPE=C3D8R, ELSET=EB3
       1,     158,     173,     277,     249,     163,     192,     668,     590
       2,     173,     172,     286,     277,     192,     197,     669,     668
       3,     172,     171,     295,     286,     197,     202,     670,     669
       4,     171,     170,     304,     295,     202,     207,     671,     670
       5,     170,     169,     313,     304,     207,     212,     672,     671
       6,     169,     168,     322,     313,     212,     217,     673,     672
       7,     168,     167,     331,     322,     217,     222,     674,     673
       8,     167,     166,     340,     331,     222,     227,     675,     674
       9,     166,     165,     349,     340,     227,     232,     676,     675
      10,     165,     164,     276,     349,     232,     182,     465,     676
      11,     249,     277,     278,     250,     590,     668,     677,     589
      12,     277,     286,     287,     278,     668,     669,     678,     677
      13,     286,     295,     296,     287,     669,     670,     679,     678
      14,     295,     304,     305,     296,     670,     671,     680,     679
      15,     304,     313,     314,     305,     671,     672,     681,     680
      16,     313,     322,     323,     314,     672,     673,     682,     681
      17,     322,     331,     332,     323,     673,     674,     683,     682
      18,     331,     340,     341,     332,     674,     675,     684,     683
      19,     340,     349,     350,     341,     675,     676,     685,     684
      20,     349,     276,     275,     350,     676,     465,     474,     685
** ... 3548 like lines cut
**
********************************** P R O P E R T I E S ************************
*SOLID SECTION, ELSET=EB3, MATERIAL=Default-Steel
**
*END PART
**
**
**
********************************** E N D   P A R T S **********************************
**
**
********************************** A S S E M B L Y ************************************
**
*ASSEMBLY, NAME=ASSEMBLY1
**
*INSTANCE, NAME=Part-Default_1, PART=Part-Default
*END INSTANCE
**
*END ASSEMBLY
**
**
**
*MATERIAL, NAME = Default-Steel
*ELASTIC, TYPE=ISOTROPIC
2.068000e+05, 2.900000e-01
*DENSITY
7.000000e-06
*CONDUCTIVITY,TYPE=ISO
4.500000e-02
*SPECIFIC HEAT
5.000000e+02
**
**
************************************** H I S T O R Y *************************************
**
*PREPRINT
**
**************************************** S T E P 1 ***************************************
*STEP,INC=100,NAME=Default Set
**
*STATIC
1, 1, 1e-05, 1
**
**
**
**
*END STEP
